*SPEF "ieee 1481-1999"
*DESIGN "m_Top_Module_User"
*DATE "11:11:11 Fri 11 11, 1111"
*VENDOR "OpenRCX"
*PROGRAM "Parallel Extraction"
*VERSION "1.0"
*DESIGN_FLOW "NAME_SCOPE LOCAL" "PIN_CAP NONE"
*DIVIDER /
*DELIMITER :
*BUS_DELIMITER []
*T_UNIT 1 NS
*C_UNIT 1 PF
*R_UNIT 1 OHM
*L_UNIT 1 HENRY

*NAME_MAP
*3 io_in[0]
*4 io_in[10]
*5 io_in[11]
*6 io_in[12]
*7 io_in[13]
*8 io_in[14]
*9 io_in[15]
*10 io_in[16]
*11 io_in[17]
*12 io_in[18]
*13 io_in[19]
*14 io_in[1]
*15 io_in[20]
*16 io_in[21]
*17 io_in[22]
*18 io_in[23]
*19 io_in[24]
*20 io_in[25]
*21 io_in[26]
*22 io_in[27]
*23 io_in[28]
*24 io_in[29]
*25 io_in[2]
*26 io_in[30]
*27 io_in[31]
*28 io_in[32]
*29 io_in[33]
*30 io_in[34]
*31 io_in[35]
*32 io_in[36]
*33 io_in[37]
*34 io_in[3]
*35 io_in[4]
*36 io_in[5]
*37 io_in[6]
*38 io_in[7]
*39 io_in[8]
*40 io_in[9]
*41 io_oeb[0]
*42 io_oeb[10]
*43 io_oeb[11]
*44 io_oeb[12]
*45 io_oeb[13]
*46 io_oeb[14]
*47 io_oeb[15]
*48 io_oeb[16]
*49 io_oeb[17]
*50 io_oeb[18]
*51 io_oeb[19]
*52 io_oeb[1]
*53 io_oeb[20]
*54 io_oeb[21]
*55 io_oeb[22]
*56 io_oeb[23]
*57 io_oeb[24]
*58 io_oeb[25]
*59 io_oeb[26]
*60 io_oeb[27]
*61 io_oeb[28]
*62 io_oeb[29]
*63 io_oeb[2]
*64 io_oeb[30]
*65 io_oeb[31]
*66 io_oeb[32]
*67 io_oeb[33]
*68 io_oeb[34]
*69 io_oeb[35]
*70 io_oeb[36]
*71 net244
*72 io_oeb[3]
*73 io_oeb[4]
*74 io_oeb[5]
*75 io_oeb[6]
*76 io_oeb[7]
*77 io_oeb[8]
*78 io_oeb[9]
*79 io_out[0]
*80 io_out[10]
*81 io_out[11]
*82 io_out[12]
*83 io_out[13]
*84 io_out[14]
*85 io_out[15]
*86 io_out[16]
*87 io_out[17]
*88 io_out[18]
*89 io_out[19]
*90 io_out[1]
*91 io_out[20]
*92 io_out[21]
*93 io_out[22]
*94 io_out[23]
*95 io_out[24]
*96 io_out[25]
*97 io_out[26]
*98 io_out[27]
*99 io_out[28]
*100 io_out[29]
*101 io_out[2]
*102 io_out[30]
*103 io_out[31]
*104 net245
*105 net246
*106 net247
*107 net248
*108 net249
*109 net250
*110 io_out[3]
*111 io_out[4]
*112 io_out[5]
*113 io_out[6]
*114 io_out[7]
*115 io_out[8]
*116 io_out[9]
*117 net251
*118 net252
*119 net253
*120 la_data_in[0]
*121 la_data_in[100]
*122 la_data_in[101]
*123 la_data_in[102]
*124 la_data_in[103]
*125 la_data_in[104]
*126 la_data_in[105]
*127 la_data_in[106]
*128 la_data_in[107]
*129 la_data_in[108]
*130 la_data_in[109]
*131 la_data_in[10]
*132 la_data_in[110]
*133 la_data_in[111]
*134 la_data_in[112]
*135 la_data_in[113]
*136 la_data_in[114]
*137 la_data_in[115]
*138 la_data_in[116]
*139 la_data_in[117]
*140 la_data_in[118]
*141 la_data_in[119]
*142 la_data_in[11]
*143 la_data_in[120]
*144 la_data_in[121]
*145 la_data_in[122]
*146 la_data_in[123]
*147 la_data_in[124]
*148 la_data_in[125]
*149 la_data_in[126]
*150 la_data_in[127]
*151 la_data_in[12]
*152 la_data_in[13]
*153 la_data_in[14]
*154 la_data_in[15]
*155 la_data_in[16]
*156 la_data_in[17]
*157 la_data_in[18]
*158 la_data_in[19]
*159 la_data_in[1]
*160 la_data_in[20]
*161 la_data_in[21]
*162 la_data_in[22]
*163 la_data_in[23]
*164 la_data_in[24]
*165 la_data_in[25]
*166 la_data_in[26]
*167 la_data_in[27]
*168 la_data_in[28]
*169 la_data_in[29]
*170 la_data_in[2]
*171 la_data_in[30]
*172 la_data_in[31]
*173 la_data_in[32]
*174 la_data_in[33]
*175 la_data_in[34]
*176 la_data_in[35]
*177 la_data_in[36]
*178 la_data_in[37]
*179 la_data_in[38]
*180 la_data_in[39]
*181 la_data_in[3]
*182 la_data_in[40]
*183 la_data_in[41]
*184 la_data_in[42]
*185 la_data_in[43]
*186 la_data_in[44]
*187 la_data_in[45]
*188 la_data_in[46]
*189 la_data_in[47]
*190 la_data_in[48]
*191 la_data_in[49]
*192 la_data_in[4]
*193 la_data_in[50]
*194 la_data_in[51]
*195 la_data_in[52]
*196 la_data_in[53]
*197 la_data_in[54]
*198 la_data_in[55]
*199 la_data_in[56]
*200 la_data_in[57]
*201 la_data_in[58]
*202 la_data_in[59]
*203 la_data_in[5]
*204 la_data_in[60]
*205 la_data_in[61]
*206 la_data_in[62]
*207 la_data_in[63]
*208 la_data_in[64]
*209 la_data_in[65]
*210 la_data_in[66]
*211 la_data_in[67]
*212 la_data_in[68]
*213 la_data_in[69]
*214 la_data_in[6]
*215 la_data_in[70]
*216 la_data_in[71]
*217 la_data_in[72]
*218 la_data_in[73]
*219 la_data_in[74]
*220 la_data_in[75]
*221 la_data_in[76]
*222 la_data_in[77]
*223 la_data_in[78]
*224 la_data_in[79]
*225 la_data_in[7]
*226 la_data_in[80]
*227 la_data_in[81]
*228 la_data_in[82]
*229 la_data_in[83]
*230 la_data_in[84]
*231 la_data_in[85]
*232 la_data_in[86]
*233 la_data_in[87]
*234 la_data_in[88]
*235 la_data_in[89]
*236 la_data_in[8]
*237 la_data_in[90]
*238 la_data_in[91]
*239 la_data_in[92]
*240 la_data_in[93]
*241 la_data_in[94]
*242 la_data_in[95]
*243 la_data_in[96]
*244 la_data_in[97]
*245 la_data_in[98]
*246 la_data_in[99]
*247 la_data_in[9]
*248 la_data_out[0]
*249 net322
*250 net323
*251 net324
*252 net325
*253 net326
*254 net327
*255 net328
*256 net329
*257 net330
*258 net331
*259 la_data_out[10]
*260 net332
*261 net333
*262 net334
*263 net335
*264 net336
*265 net337
*266 net338
*267 net339
*268 net340
*269 net341
*270 la_data_out[11]
*271 net342
*272 net343
*273 net344
*274 net345
*275 net346
*276 net347
*277 net348
*278 net349
*279 la_data_out[12]
*280 la_data_out[13]
*281 la_data_out[14]
*282 la_data_out[15]
*283 la_data_out[16]
*284 la_data_out[17]
*285 la_data_out[18]
*286 la_data_out[19]
*287 la_data_out[1]
*288 la_data_out[20]
*289 la_data_out[21]
*290 la_data_out[22]
*291 la_data_out[23]
*292 la_data_out[24]
*293 la_data_out[25]
*294 la_data_out[26]
*295 la_data_out[27]
*296 la_data_out[28]
*297 la_data_out[29]
*298 la_data_out[2]
*299 la_data_out[30]
*300 la_data_out[31]
*301 net254
*302 net255
*303 net256
*304 net257
*305 net258
*306 net259
*307 net260
*308 net261
*309 la_data_out[3]
*310 net262
*311 net263
*312 net264
*313 net265
*314 net266
*315 net267
*316 net268
*317 net269
*318 net270
*319 net271
*320 la_data_out[4]
*321 net272
*322 net273
*323 net274
*324 net275
*325 net276
*326 net277
*327 net278
*328 net279
*329 net280
*330 net281
*331 la_data_out[5]
*332 net282
*333 net283
*334 net284
*335 net285
*336 net286
*337 net287
*338 net288
*339 net289
*340 net290
*341 net291
*342 la_data_out[6]
*343 net292
*344 net293
*345 net294
*346 net295
*347 net296
*348 net297
*349 net298
*350 net299
*351 net300
*352 net301
*353 la_data_out[7]
*354 net302
*355 net303
*356 net304
*357 net305
*358 net306
*359 net307
*360 net308
*361 net309
*362 net310
*363 net311
*364 la_data_out[8]
*365 net312
*366 net313
*367 net314
*368 net315
*369 net316
*370 net317
*371 net318
*372 net319
*373 net320
*374 net321
*375 la_data_out[9]
*376 la_oenb[0]
*377 la_oenb[100]
*378 la_oenb[101]
*379 la_oenb[102]
*380 la_oenb[103]
*381 la_oenb[104]
*382 la_oenb[105]
*383 la_oenb[106]
*384 la_oenb[107]
*385 la_oenb[108]
*386 la_oenb[109]
*387 la_oenb[10]
*388 la_oenb[110]
*389 la_oenb[111]
*390 la_oenb[112]
*391 la_oenb[113]
*392 la_oenb[114]
*393 la_oenb[115]
*394 la_oenb[116]
*395 la_oenb[117]
*396 la_oenb[118]
*397 la_oenb[119]
*398 la_oenb[11]
*399 la_oenb[120]
*400 la_oenb[121]
*401 la_oenb[122]
*402 la_oenb[123]
*403 la_oenb[124]
*404 la_oenb[125]
*405 la_oenb[126]
*406 la_oenb[127]
*407 la_oenb[12]
*408 la_oenb[13]
*409 la_oenb[14]
*410 la_oenb[15]
*411 la_oenb[16]
*412 la_oenb[17]
*413 la_oenb[18]
*414 la_oenb[19]
*415 la_oenb[1]
*416 la_oenb[20]
*417 la_oenb[21]
*418 la_oenb[22]
*419 la_oenb[23]
*420 la_oenb[24]
*421 la_oenb[25]
*422 la_oenb[26]
*423 la_oenb[27]
*424 la_oenb[28]
*425 la_oenb[29]
*426 la_oenb[2]
*427 la_oenb[30]
*428 la_oenb[31]
*429 la_oenb[32]
*430 la_oenb[33]
*431 la_oenb[34]
*432 la_oenb[35]
*433 la_oenb[36]
*434 la_oenb[37]
*435 la_oenb[38]
*436 la_oenb[39]
*437 la_oenb[3]
*438 la_oenb[40]
*439 la_oenb[41]
*440 la_oenb[42]
*441 la_oenb[43]
*442 la_oenb[44]
*443 la_oenb[45]
*444 la_oenb[46]
*445 la_oenb[47]
*446 la_oenb[48]
*447 la_oenb[49]
*448 la_oenb[4]
*449 la_oenb[50]
*450 la_oenb[51]
*451 la_oenb[52]
*452 la_oenb[53]
*453 la_oenb[54]
*454 la_oenb[55]
*455 la_oenb[56]
*456 la_oenb[57]
*457 la_oenb[58]
*458 la_oenb[59]
*459 la_oenb[5]
*460 la_oenb[60]
*461 la_oenb[61]
*462 la_oenb[62]
*463 la_oenb[63]
*464 la_oenb[64]
*465 la_oenb[65]
*466 la_oenb[66]
*467 la_oenb[67]
*468 la_oenb[68]
*469 la_oenb[69]
*470 la_oenb[6]
*471 la_oenb[70]
*472 la_oenb[71]
*473 la_oenb[72]
*474 la_oenb[73]
*475 la_oenb[74]
*476 la_oenb[75]
*477 la_oenb[76]
*478 la_oenb[77]
*479 la_oenb[78]
*480 la_oenb[79]
*481 la_oenb[7]
*482 la_oenb[80]
*483 la_oenb[81]
*484 la_oenb[82]
*485 la_oenb[83]
*486 la_oenb[84]
*487 la_oenb[85]
*488 la_oenb[86]
*489 la_oenb[87]
*490 la_oenb[88]
*491 la_oenb[89]
*492 la_oenb[8]
*493 la_oenb[90]
*494 la_oenb[91]
*495 la_oenb[92]
*496 la_oenb[93]
*497 la_oenb[94]
*498 la_oenb[95]
*499 la_oenb[96]
*500 la_oenb[97]
*501 la_oenb[98]
*502 la_oenb[99]
*503 la_oenb[9]
*504 wb_clk_i
*505 wb_rst_i
*506 wbs_ack_o
*507 wbs_adr_i[0]
*508 wbs_adr_i[10]
*509 wbs_adr_i[11]
*510 wbs_adr_i[12]
*511 wbs_adr_i[13]
*512 wbs_adr_i[14]
*513 wbs_adr_i[15]
*514 wbs_adr_i[16]
*515 wbs_adr_i[17]
*516 wbs_adr_i[18]
*517 wbs_adr_i[19]
*518 wbs_adr_i[1]
*519 wbs_adr_i[20]
*520 wbs_adr_i[21]
*521 wbs_adr_i[22]
*522 wbs_adr_i[23]
*523 wbs_adr_i[24]
*524 wbs_adr_i[25]
*525 wbs_adr_i[26]
*526 wbs_adr_i[27]
*527 wbs_adr_i[28]
*528 wbs_adr_i[29]
*529 wbs_adr_i[2]
*530 wbs_adr_i[30]
*531 wbs_adr_i[31]
*532 wbs_adr_i[3]
*533 wbs_adr_i[4]
*534 wbs_adr_i[5]
*535 wbs_adr_i[6]
*536 wbs_adr_i[7]
*537 wbs_adr_i[8]
*538 wbs_adr_i[9]
*539 wbs_cyc_i
*540 wbs_dat_i[0]
*541 wbs_dat_i[10]
*542 wbs_dat_i[11]
*543 wbs_dat_i[12]
*544 wbs_dat_i[13]
*545 wbs_dat_i[14]
*546 wbs_dat_i[15]
*547 wbs_dat_i[16]
*548 wbs_dat_i[17]
*549 wbs_dat_i[18]
*550 wbs_dat_i[19]
*551 wbs_dat_i[1]
*552 wbs_dat_i[20]
*553 wbs_dat_i[21]
*554 wbs_dat_i[22]
*555 wbs_dat_i[23]
*556 wbs_dat_i[24]
*557 wbs_dat_i[25]
*558 wbs_dat_i[26]
*559 wbs_dat_i[27]
*560 wbs_dat_i[28]
*561 wbs_dat_i[29]
*562 wbs_dat_i[2]
*563 wbs_dat_i[30]
*564 wbs_dat_i[31]
*565 wbs_dat_i[3]
*566 wbs_dat_i[4]
*567 wbs_dat_i[5]
*568 wbs_dat_i[6]
*569 wbs_dat_i[7]
*570 wbs_dat_i[8]
*571 wbs_dat_i[9]
*572 wbs_dat_o[0]
*573 wbs_dat_o[10]
*574 wbs_dat_o[11]
*575 wbs_dat_o[12]
*576 wbs_dat_o[13]
*577 wbs_dat_o[14]
*578 wbs_dat_o[15]
*579 wbs_dat_o[16]
*580 wbs_dat_o[17]
*581 wbs_dat_o[18]
*582 wbs_dat_o[19]
*583 wbs_dat_o[1]
*584 wbs_dat_o[20]
*585 wbs_dat_o[21]
*586 wbs_dat_o[22]
*587 wbs_dat_o[23]
*588 wbs_dat_o[24]
*589 wbs_dat_o[25]
*590 wbs_dat_o[26]
*591 wbs_dat_o[27]
*592 wbs_dat_o[28]
*593 wbs_dat_o[29]
*594 wbs_dat_o[2]
*595 wbs_dat_o[30]
*596 wbs_dat_o[31]
*597 wbs_dat_o[3]
*598 wbs_dat_o[4]
*599 wbs_dat_o[5]
*600 wbs_dat_o[6]
*601 wbs_dat_o[7]
*602 wbs_dat_o[8]
*603 wbs_dat_o[9]
*604 wbs_sel_i[0]
*605 wbs_sel_i[1]
*606 wbs_sel_i[2]
*607 wbs_sel_i[3]
*608 wbs_stb_i
*609 wbs_we_i
*610 _0000_
*611 _0001_
*612 _0002_
*613 _0003_
*614 _0004_
*615 _0005_
*616 _0006_
*617 _0007_
*618 _0008_
*619 _0009_
*620 _0010_
*621 _0011_
*622 _0012_
*623 _0013_
*624 _0014_
*625 _0015_
*626 _0016_
*627 _0017_
*628 _0018_
*629 _0019_
*630 _0020_
*631 _0021_
*632 _0022_
*633 _0023_
*634 _0024_
*635 _0025_
*636 _0026_
*637 _0027_
*638 _0028_
*639 _0029_
*640 _0030_
*641 _0031_
*642 _0032_
*643 _0033_
*644 _0034_
*645 _0035_
*646 _0036_
*647 _0037_
*648 _0038_
*649 _0039_
*650 _0040_
*651 _0041_
*652 _0042_
*653 _0043_
*654 _0044_
*655 _0045_
*656 _0046_
*657 _0047_
*658 _0048_
*659 _0049_
*660 _0050_
*661 _0051_
*662 _0052_
*663 _0053_
*664 _0054_
*665 _0055_
*666 _0056_
*667 _0057_
*668 _0058_
*669 _0059_
*670 _0060_
*671 _0061_
*672 _0062_
*673 _0063_
*674 _0064_
*675 _0065_
*676 _0066_
*677 _0067_
*678 _0068_
*679 _0069_
*680 _0070_
*681 _0071_
*682 _0072_
*683 _0073_
*684 _0074_
*685 _0075_
*686 _0076_
*687 _0077_
*688 _0078_
*689 _0079_
*690 _0080_
*691 _0081_
*692 _0082_
*693 _0083_
*694 _0084_
*695 _0085_
*696 _0086_
*697 _0087_
*698 _0088_
*699 _0089_
*700 _0090_
*701 _0091_
*702 _0092_
*703 _0093_
*704 _0094_
*705 _0095_
*706 _0096_
*707 _0097_
*708 _0098_
*709 _0099_
*710 _0100_
*711 _0101_
*712 _0102_
*713 _0103_
*714 _0104_
*715 _0105_
*716 _0106_
*717 _0107_
*718 _0108_
*719 _0109_
*720 _0110_
*721 _0111_
*722 _0112_
*723 _0113_
*724 _0114_
*725 _0115_
*726 _0116_
*727 _0117_
*728 _0118_
*729 _0119_
*730 _0120_
*731 _0121_
*732 _0122_
*733 _0123_
*734 _0124_
*735 _0125_
*736 _0126_
*737 _0127_
*738 _0128_
*739 _0129_
*740 _0130_
*741 _0131_
*742 _0132_
*743 _0133_
*744 _0134_
*745 _0135_
*746 _0136_
*747 _0137_
*748 _0138_
*749 _0139_
*750 _0140_
*751 _0141_
*752 _0142_
*753 _0143_
*754 _0144_
*755 _0145_
*756 _0146_
*757 _0147_
*758 _0148_
*759 _0149_
*760 _0150_
*761 _0151_
*762 _0152_
*763 _0153_
*764 _0154_
*765 _0155_
*766 _0156_
*767 _0157_
*768 _0158_
*769 _0159_
*770 _0160_
*771 _0161_
*772 _0162_
*773 _0163_
*774 _0164_
*775 _0165_
*776 _0166_
*777 _0167_
*778 _0168_
*779 _0169_
*780 _0170_
*781 _0171_
*782 _0172_
*783 _0173_
*784 _0174_
*785 _0175_
*786 _0176_
*787 _0177_
*788 _0178_
*789 _0179_
*790 _0180_
*791 _0181_
*792 _0182_
*793 _0183_
*794 _0184_
*795 _0185_
*796 _0186_
*797 _0187_
*798 _0188_
*799 _0189_
*800 _0190_
*801 _0191_
*802 _0192_
*803 _0193_
*804 _0194_
*805 _0195_
*806 _0196_
*807 _0197_
*808 _0198_
*809 _0199_
*810 _0200_
*811 _0201_
*812 _0202_
*813 _0203_
*814 _0204_
*815 _0205_
*816 _0206_
*817 _0207_
*818 _0208_
*819 _0209_
*820 _0210_
*821 _0211_
*822 _0212_
*823 _0213_
*824 _0214_
*825 _0215_
*826 _0216_
*827 _0217_
*828 _0218_
*829 _0219_
*830 _0220_
*831 _0221_
*832 _0222_
*833 _0223_
*834 _0224_
*835 _0225_
*836 _0226_
*837 _0227_
*838 _0228_
*839 _0229_
*840 _0230_
*841 _0231_
*842 _0232_
*843 _0233_
*844 _0234_
*845 _0235_
*846 _0236_
*847 _0237_
*848 _0238_
*849 _0239_
*850 _0240_
*851 _0241_
*852 _0242_
*853 _0243_
*854 _0244_
*855 _0245_
*856 _0246_
*857 _0247_
*858 _0248_
*859 _0249_
*860 _0250_
*861 _0251_
*862 _0252_
*863 _0253_
*864 _0254_
*865 _0255_
*866 _0256_
*867 _0257_
*868 _0258_
*869 _0259_
*870 _0260_
*871 _0261_
*872 _0262_
*873 _0263_
*874 _0264_
*875 _0265_
*876 _0266_
*877 _0267_
*878 _0268_
*879 _0269_
*880 _0270_
*881 _0271_
*882 _0272_
*883 _0273_
*884 _0274_
*885 _0275_
*886 _0276_
*887 _0277_
*888 _0278_
*889 _0279_
*890 _0280_
*891 _0281_
*892 _0282_
*893 _0283_
*894 _0284_
*895 _0285_
*896 _0286_
*897 _0287_
*898 _0288_
*899 _0289_
*900 _0290_
*901 _0291_
*902 _0292_
*903 _0293_
*904 _0294_
*905 _0295_
*906 _0296_
*907 _0297_
*908 _0298_
*909 _0299_
*910 _0300_
*911 _0301_
*912 _0302_
*913 _0303_
*914 _0304_
*915 _0305_
*916 _0306_
*917 _0307_
*918 _0308_
*919 _0309_
*920 _0310_
*921 _0311_
*922 _0312_
*923 _0313_
*924 _0314_
*925 _0315_
*926 _0316_
*927 _0317_
*928 _0318_
*929 _0319_
*930 _0320_
*931 _0321_
*932 _0322_
*933 _0323_
*934 _0324_
*935 _0325_
*936 _0326_
*937 _0327_
*938 _0328_
*939 _0329_
*940 _0330_
*941 _0331_
*942 _0332_
*943 _0333_
*944 _0334_
*945 _0335_
*946 _0336_
*947 _0337_
*948 _0338_
*949 _0339_
*950 _0340_
*951 _0341_
*952 _0342_
*953 _0343_
*954 _0344_
*955 _0345_
*956 _0346_
*957 _0347_
*958 _0348_
*959 _0349_
*960 _0350_
*961 _0351_
*962 _0352_
*963 _0353_
*964 _0354_
*965 _0355_
*966 _0356_
*967 _0357_
*968 _0358_
*969 _0359_
*970 _0360_
*971 _0361_
*972 _0362_
*973 _0363_
*974 _0364_
*975 _0365_
*976 _0366_
*977 _0367_
*978 _0368_
*979 _0369_
*980 _0370_
*981 _0371_
*982 _0372_
*983 _0373_
*984 _0374_
*985 _0375_
*986 _0376_
*987 _0377_
*988 _0378_
*989 _0379_
*990 _0380_
*991 _0381_
*992 _0382_
*993 _0383_
*994 _0384_
*995 _0385_
*996 _0386_
*997 _0387_
*998 _0388_
*999 _0389_
*1000 _0390_
*1001 _0391_
*1002 _0392_
*1003 _0393_
*1004 _0394_
*1005 _0395_
*1006 _0396_
*1007 _0397_
*1008 _0398_
*1009 _0399_
*1010 _0400_
*1011 _0401_
*1012 _0402_
*1013 _0403_
*1014 _0404_
*1015 _0405_
*1016 _0406_
*1017 _0407_
*1018 _0408_
*1019 _0409_
*1020 _0410_
*1021 _0411_
*1022 _0412_
*1023 _0413_
*1024 _0414_
*1025 _0415_
*1026 _0416_
*1027 _0417_
*1028 _0418_
*1029 _0419_
*1030 _0420_
*1031 _0421_
*1032 _0422_
*1033 _0423_
*1034 _0424_
*1035 _0425_
*1036 _0426_
*1037 _0427_
*1038 _0428_
*1039 _0429_
*1040 _0430_
*1041 _0431_
*1042 _0432_
*1043 _0433_
*1044 _0434_
*1045 _0435_
*1046 _0436_
*1047 _0437_
*1048 _0438_
*1049 _0439_
*1050 _0440_
*1051 _0441_
*1052 _0442_
*1053 _0443_
*1054 _0444_
*1055 _0445_
*1056 _0446_
*1057 _0447_
*1058 _0448_
*1059 _0449_
*1060 _0450_
*1061 _0451_
*1062 _0452_
*1063 _0453_
*1064 _0454_
*1065 _0455_
*1066 _0456_
*1067 _0457_
*1068 _0458_
*1069 _0459_
*1070 _0460_
*1071 _0461_
*1072 _0462_
*1073 _0463_
*1074 _0464_
*1075 _0465_
*1076 _0466_
*1077 _0467_
*1078 _0468_
*1079 _0469_
*1080 _0470_
*1081 _0471_
*1082 _0472_
*1083 _0473_
*1084 _0474_
*1085 _0475_
*1086 _0476_
*1087 _0477_
*1088 _0478_
*1089 _0479_
*1090 _0480_
*1091 _0481_
*1092 _0482_
*1093 _0483_
*1094 _0484_
*1095 _0485_
*1096 _0486_
*1097 _0487_
*1098 _0488_
*1099 _0489_
*1100 _0490_
*1101 _0491_
*1102 _0492_
*1103 _0493_
*1104 _0494_
*1105 _0495_
*1106 _0496_
*1107 _0497_
*1108 _0498_
*1109 _0499_
*1110 _0500_
*1111 _0501_
*1112 _0502_
*1113 _0503_
*1114 _0504_
*1115 _0505_
*1116 _0506_
*1117 _0507_
*1118 _0508_
*1119 _0509_
*1120 _0510_
*1121 _0511_
*1122 _0512_
*1123 _0513_
*1124 _0514_
*1125 _0515_
*1126 _0516_
*1127 _0517_
*1128 _0518_
*1129 _0519_
*1130 _0520_
*1131 _0521_
*1132 _0522_
*1133 _0523_
*1134 _0524_
*1135 _0525_
*1136 _0526_
*1137 _0527_
*1138 _0528_
*1139 _0529_
*1140 _0530_
*1141 _0531_
*1142 _0532_
*1143 _0533_
*1144 _0534_
*1145 _0535_
*1146 _0536_
*1147 _0537_
*1148 _0538_
*1149 _0539_
*1150 _0540_
*1151 _0541_
*1152 _0542_
*1153 _0543_
*1154 _0544_
*1155 _0545_
*1156 _0546_
*1157 _0547_
*1158 _0548_
*1159 _0549_
*1160 _0550_
*1161 _0551_
*1162 _0552_
*1163 _0553_
*1164 _0554_
*1165 _0555_
*1166 _0556_
*1167 _0557_
*1168 _0558_
*1169 _0559_
*1170 _0560_
*1171 _0561_
*1172 _0562_
*1173 _0563_
*1174 _0564_
*1175 _0565_
*1176 _0566_
*1177 _0567_
*1178 _0568_
*1179 _0569_
*1180 _0570_
*1181 _0571_
*1182 _0572_
*1183 _0573_
*1184 _0574_
*1185 _0575_
*1186 _0576_
*1187 _0577_
*1188 _0578_
*1189 _0579_
*1190 _0580_
*1191 _0581_
*1192 _0582_
*1193 _0583_
*1194 _0584_
*1195 _0585_
*1196 _0586_
*1197 _0587_
*1198 _0588_
*1199 _0589_
*1200 _0590_
*1201 _0591_
*1202 _0592_
*1203 _0593_
*1204 _0594_
*1205 _0595_
*1206 _0596_
*1207 _0597_
*1208 _0598_
*1209 _0599_
*1210 _0600_
*1211 _0601_
*1212 _0602_
*1213 _0603_
*1214 _0604_
*1215 _0605_
*1216 _0606_
*1217 _0607_
*1218 _0608_
*1219 _0609_
*1220 _0610_
*1221 _0611_
*1222 _0612_
*1223 _0613_
*1224 _0614_
*1225 _0615_
*1226 clknet_0_counter\.clk
*1227 clknet_1_0_0_counter\.clk
*1228 clknet_1_1_0_counter\.clk
*1229 clknet_2_0_0_counter\.clk
*1230 clknet_2_1_0_counter\.clk
*1231 clknet_2_2_0_counter\.clk
*1232 clknet_2_3_0_counter\.clk
*1233 clknet_3_0_0_counter\.clk
*1234 clknet_3_1_0_counter\.clk
*1235 clknet_3_2_0_counter\.clk
*1236 clknet_3_3_0_counter\.clk
*1237 clknet_3_4_0_counter\.clk
*1238 clknet_3_5_0_counter\.clk
*1239 clknet_3_6_0_counter\.clk
*1240 clknet_3_7_0_counter\.clk
*1241 counter\.clk
*1242 counter\.o_rdata_q\[0\]
*1243 counter\.o_rdata_q\[10\]
*1244 counter\.o_rdata_q\[11\]
*1245 counter\.o_rdata_q\[12\]
*1246 counter\.o_rdata_q\[13\]
*1247 counter\.o_rdata_q\[14\]
*1248 counter\.o_rdata_q\[15\]
*1249 counter\.o_rdata_q\[16\]
*1250 counter\.o_rdata_q\[17\]
*1251 counter\.o_rdata_q\[18\]
*1252 counter\.o_rdata_q\[19\]
*1253 counter\.o_rdata_q\[1\]
*1254 counter\.o_rdata_q\[20\]
*1255 counter\.o_rdata_q\[21\]
*1256 counter\.o_rdata_q\[22\]
*1257 counter\.o_rdata_q\[23\]
*1258 counter\.o_rdata_q\[24\]
*1259 counter\.o_rdata_q\[25\]
*1260 counter\.o_rdata_q\[26\]
*1261 counter\.o_rdata_q\[27\]
*1262 counter\.o_rdata_q\[28\]
*1263 counter\.o_rdata_q\[29\]
*1264 counter\.o_rdata_q\[2\]
*1265 counter\.o_rdata_q\[30\]
*1266 counter\.o_rdata_q\[31\]
*1267 counter\.o_rdata_q\[3\]
*1268 counter\.o_rdata_q\[4\]
*1269 counter\.o_rdata_q\[5\]
*1270 counter\.o_rdata_q\[6\]
*1271 counter\.o_rdata_q\[7\]
*1272 counter\.o_rdata_q\[8\]
*1273 counter\.o_rdata_q\[9\]
*1274 counter\.reset
*1275 net1
*1276 net10
*1277 net100
*1278 net101
*1279 net102
*1280 net103
*1281 net104
*1282 net105
*1283 net106
*1284 net107
*1285 net108
*1286 net109
*1287 net11
*1288 net110
*1289 net111
*1290 net112
*1291 net113
*1292 net114
*1293 net115
*1294 net116
*1295 net117
*1296 net118
*1297 net119
*1298 net12
*1299 net120
*1300 net121
*1301 net122
*1302 net123
*1303 net124
*1304 net125
*1305 net126
*1306 net127
*1307 net128
*1308 net129
*1309 net13
*1310 net130
*1311 net131
*1312 net132
*1313 net133
*1314 net134
*1315 net135
*1316 net136
*1317 net137
*1318 net138
*1319 net139
*1320 net14
*1321 net140
*1322 net141
*1323 net142
*1324 net143
*1325 net144
*1326 net145
*1327 net146
*1328 net147
*1329 net148
*1330 net149
*1331 net15
*1332 net150
*1333 net151
*1334 net152
*1335 net153
*1336 net154
*1337 net155
*1338 net156
*1339 net157
*1340 net158
*1341 net159
*1342 net16
*1343 net160
*1344 net161
*1345 net162
*1346 net163
*1347 net164
*1348 net165
*1349 net166
*1350 net167
*1351 net168
*1352 net169
*1353 net17
*1354 net170
*1355 net171
*1356 net172
*1357 net173
*1358 net174
*1359 net175
*1360 net176
*1361 net177
*1362 net178
*1363 net179
*1364 net18
*1365 net180
*1366 net181
*1367 net182
*1368 net183
*1369 net184
*1370 net185
*1371 net186
*1372 net187
*1373 net188
*1374 net189
*1375 net19
*1376 net190
*1377 net191
*1378 net192
*1379 net193
*1380 net194
*1381 net195
*1382 net196
*1383 net197
*1384 net198
*1385 net199
*1386 net2
*1387 net20
*1388 net200
*1389 net201
*1390 net202
*1391 net203
*1392 net204
*1393 net205
*1394 net206
*1395 net207
*1396 net208
*1397 net209
*1398 net21
*1399 net210
*1400 net211
*1401 net212
*1402 net213
*1403 net214
*1404 net215
*1405 net216
*1406 net217
*1407 net218
*1408 net219
*1409 net22
*1410 net220
*1411 net221
*1412 net222
*1413 net223
*1414 net224
*1415 net225
*1416 net226
*1417 net227
*1418 net228
*1419 net229
*1420 net23
*1421 net230
*1422 net231
*1423 net232
*1424 net233
*1425 net234
*1426 net235
*1427 net236
*1428 net237
*1429 net238
*1430 net239
*1431 net24
*1432 net240
*1433 net241
*1434 net242
*1435 net243
*1436 net25
*1437 net26
*1438 net27
*1439 net28
*1440 net29
*1441 net3
*1442 net30
*1443 net31
*1444 net32
*1445 net33
*1446 net34
*1447 net35
*1448 net350
*1449 net351
*1450 net352
*1451 net36
*1452 net37
*1453 net38
*1454 net39
*1455 net4
*1456 net40
*1457 net41
*1458 net42
*1459 net43
*1460 net44
*1461 net45
*1462 net46
*1463 net47
*1464 net48
*1465 net49
*1466 net5
*1467 net50
*1468 net51
*1469 net52
*1470 net53
*1471 net54
*1472 net55
*1473 net56
*1474 net57
*1475 net58
*1476 net59
*1477 net6
*1478 net60
*1479 net61
*1480 net62
*1481 net63
*1482 net64
*1483 net65
*1484 net66
*1485 net67
*1486 net68
*1487 net69
*1488 net7
*1489 net70
*1490 net71
*1491 net72
*1492 net73
*1493 net74
*1494 net75
*1495 net76
*1496 net77
*1497 net78
*1498 net79
*1499 net8
*1500 net80
*1501 net81
*1502 net82
*1503 net83
*1504 net84
*1505 net85
*1506 net86
*1507 net87
*1508 net88
*1509 net89
*1510 net9
*1511 net90
*1512 net91
*1513 net92
*1514 net93
*1515 net94
*1516 net95
*1517 net96
*1518 net97
*1519 net98
*1520 net99
*1521 ANTENNA__0616__A
*1522 ANTENNA__0616__B
*1523 ANTENNA__0618__A
*1524 ANTENNA__0619__A
*1525 ANTENNA__0620__A0
*1526 ANTENNA__0622__A
*1527 ANTENNA__0622__B
*1528 ANTENNA__0622__C
*1529 ANTENNA__0624__A1
*1530 ANTENNA__0624__S
*1531 ANTENNA__0626__A0
*1532 ANTENNA__0628__A1
*1533 ANTENNA__0628__S
*1534 ANTENNA__0630__A0
*1535 ANTENNA__0632__A1
*1536 ANTENNA__0632__S
*1537 ANTENNA__0634__A0
*1538 ANTENNA__0636__A1
*1539 ANTENNA__0636__S
*1540 ANTENNA__0638__A
*1541 ANTENNA__0639__A0
*1542 ANTENNA__0643__A1
*1543 ANTENNA__0645__A
*1544 ANTENNA__0646__A
*1545 ANTENNA__0647__A0
*1546 ANTENNA__0649__A1
*1547 ANTENNA__0651__A
*1548 ANTENNA__0652__A0
*1549 ANTENNA__0654__A1
*1550 ANTENNA__0656__A
*1551 ANTENNA__0657__A0
*1552 ANTENNA__0659__A1
*1553 ANTENNA__0661__A0
*1554 ANTENNA__0663__A1
*1555 ANTENNA__0665__A0
*1556 ANTENNA__0668__A1
*1557 ANTENNA__0670__A
*1558 ANTENNA__0671__A
*1559 ANTENNA__0672__A
*1560 ANTENNA__0673__A0
*1561 ANTENNA__0675__A1
*1562 ANTENNA__0677__A
*1563 ANTENNA__0678__A0
*1564 ANTENNA__0680__A1
*1565 ANTENNA__0682__A0
*1566 ANTENNA__0684__A1
*1567 ANTENNA__0686__A
*1568 ANTENNA__0687__A0
*1569 ANTENNA__0689__A1
*1570 ANTENNA__0691__A
*1571 ANTENNA__0692__A0
*1572 ANTENNA__0695__A1
*1573 ANTENNA__0697__A
*1574 ANTENNA__0698__A
*1575 ANTENNA__0699__A0
*1576 ANTENNA__0701__A1
*1577 ANTENNA__0703__A0
*1578 ANTENNA__0705__A1
*1579 ANTENNA__0707__A
*1580 ANTENNA__0708__A0
*1581 ANTENNA__0710__A1
*1582 ANTENNA__0712__A
*1583 ANTENNA__0713__A0
*1584 ANTENNA__0715__A1
*1585 ANTENNA__0717__A0
*1586 ANTENNA__0720__A1
*1587 ANTENNA__0722__A
*1588 ANTENNA__0723__A
*1589 ANTENNA__0724__A0
*1590 ANTENNA__0726__A1
*1591 ANTENNA__0728__A
*1592 ANTENNA__0729__A0
*1593 ANTENNA__0731__A1
*1594 ANTENNA__0733__A
*1595 ANTENNA__0734__A0
*1596 ANTENNA__0736__A1
*1597 ANTENNA__0738__A
*1598 ANTENNA__0740__A0
*1599 ANTENNA__0742__A1
*1600 ANTENNA__0744__A0
*1601 ANTENNA__0747__A1
*1602 ANTENNA__0749__A
*1603 ANTENNA__0750__A
*1604 ANTENNA__0751__A0
*1605 ANTENNA__0753__A1
*1606 ANTENNA__0755__A
*1607 ANTENNA__0756__A0
*1608 ANTENNA__0758__A1
*1609 ANTENNA__0760__A
*1610 ANTENNA__0761__A0
*1611 ANTENNA__0763__A1
*1612 ANTENNA__0765__A0
*1613 ANTENNA__0767__A1
*1614 ANTENNA__0769__A
*1615 ANTENNA__0770__A0
*1616 ANTENNA__0772__A1
*1617 ANTENNA__0774__A
*1618 ANTENNA__0776__A
*1619 ANTENNA__0777__A0
*1620 ANTENNA__0777__S
*1621 ANTENNA__0779__A1
*1622 ANTENNA__0781__A
*1623 ANTENNA__0783__A0
*1624 ANTENNA__0783__S
*1625 ANTENNA__0785__A1
*1626 ANTENNA__0787__A
*1627 ANTENNA__0790__A
*1628 ANTENNA__0791__A1
*1629 ANTENNA__0791__A2
*1630 ANTENNA__0791__B1
*1631 ANTENNA__0792__A
*1632 ANTENNA__0793__A
*1633 ANTENNA__0794__A
*1634 ANTENNA__0796__A
*1635 ANTENNA__0796__B
*1636 ANTENNA__0796__C
*1637 ANTENNA__0796__D
*1638 ANTENNA__0797__A
*1639 ANTENNA__0797__B
*1640 ANTENNA__0797__C
*1641 ANTENNA__0797__D
*1642 ANTENNA__0800__A
*1643 ANTENNA__0800__B
*1644 ANTENNA__0800__C
*1645 ANTENNA__0800__D
*1646 ANTENNA__0801__A
*1647 ANTENNA__0801__B
*1648 ANTENNA__0801__C
*1649 ANTENNA__0801__D
*1650 ANTENNA__0803__A
*1651 ANTENNA__0803__B
*1652 ANTENNA__0803__C
*1653 ANTENNA__0803__D
*1654 ANTENNA__0804__A
*1655 ANTENNA__0804__B
*1656 ANTENNA__0804__C
*1657 ANTENNA__0804__D
*1658 ANTENNA__0807__A
*1659 ANTENNA__0807__B
*1660 ANTENNA__0807__C
*1661 ANTENNA__0807__D
*1662 ANTENNA__0808__B
*1663 ANTENNA__0811__A
*1664 ANTENNA__0825__A
*1665 ANTENNA__0826__A
*1666 ANTENNA__0827__A
*1667 ANTENNA__0828__C_N
*1668 ANTENNA__0829__A
*1669 ANTENNA__0831__A1_N
*1670 ANTENNA__0831__A2_N
*1671 ANTENNA__0833__B1
*1672 ANTENNA__0834__A
*1673 ANTENNA__0834__B
*1674 ANTENNA__0834__C
*1675 ANTENNA__0836__A1
*1676 ANTENNA__0836__A2
*1677 ANTENNA__0836__B2
*1678 ANTENNA__0837__A
*1679 ANTENNA__0837__B
*1680 ANTENNA__0837__C
*1681 ANTENNA__0838__A
*1682 ANTENNA__0838__C
*1683 ANTENNA__0840__A_N
*1684 ANTENNA__0840__B
*1685 ANTENNA__0840__C
*1686 ANTENNA__0840__D
*1687 ANTENNA__0841__A
*1688 ANTENNA__0842__A
*1689 ANTENNA__0843__B
*1690 ANTENNA__0844__A2
*1691 ANTENNA__0844__B1
*1692 ANTENNA__0846__A2_N
*1693 ANTENNA__0846__B1
*1694 ANTENNA__0855__B
*1695 ANTENNA__0856__A2
*1696 ANTENNA__0856__C1
*1697 ANTENNA__0857__A1
*1698 ANTENNA__0860__A
*1699 ANTENNA__0860__B
*1700 ANTENNA__0862__B1
*1701 ANTENNA__0863__A
*1702 ANTENNA__0864__B
*1703 ANTENNA__0865__A2
*1704 ANTENNA__0865__B1
*1705 ANTENNA__0867__B2
*1706 ANTENNA__0873__B
*1707 ANTENNA__0876__A
*1708 ANTENNA__0877__A
*1709 ANTENNA__0878__A
*1710 ANTENNA__0879__B
*1711 ANTENNA__0880__A2
*1712 ANTENNA__0880__B1
*1713 ANTENNA__0881__B
*1714 ANTENNA__0882__B1
*1715 ANTENNA__0883__A1_N
*1716 ANTENNA__0884__A
*1717 ANTENNA__0884__B
*1718 ANTENNA__0888__A
*1719 ANTENNA__0890__A
*1720 ANTENNA__0891__A
*1721 ANTENNA__0892__B
*1722 ANTENNA__0893__A2
*1723 ANTENNA__0893__B1
*1724 ANTENNA__0895__A2_N
*1725 ANTENNA__0895__B1
*1726 ANTENNA__0897__B
*1727 ANTENNA__0898__A2
*1728 ANTENNA__0898__B1
*1729 ANTENNA__0900__A2_N
*1730 ANTENNA__0900__B1
*1731 ANTENNA__0902__A
*1732 ANTENNA__0903__A
*1733 ANTENNA__0903__B
*1734 ANTENNA__0905__D1
*1735 ANTENNA__0907__B
*1736 ANTENNA__0908__A2
*1737 ANTENNA__0908__B1
*1738 ANTENNA__0909__B
*1739 ANTENNA__0912__A1_N
*1740 ANTENNA__0914__A
*1741 ANTENNA__0916__C1
*1742 ANTENNA__0918__A
*1743 ANTENNA__0918__C
*1744 ANTENNA__0918__D
*1745 ANTENNA__0919__A
*1746 ANTENNA__0920__D
*1747 ANTENNA__0921__C
*1748 ANTENNA__0922__A
*1749 ANTENNA__0924__A1_N
*1750 ANTENNA__0925__A
*1751 ANTENNA__0925__B
*1752 ANTENNA__0925__C
*1753 ANTENNA__0926__A
*1754 ANTENNA__0926__B
*1755 ANTENNA__0926__C
*1756 ANTENNA__0926__D
*1757 ANTENNA__0927__A
*1758 ANTENNA__0927__B
*1759 ANTENNA__0928__A1
*1760 ANTENNA__0928__A2
*1761 ANTENNA__0928__B2
*1762 ANTENNA__0930__A1
*1763 ANTENNA__0931__A
*1764 ANTENNA__0932__B
*1765 ANTENNA__0933__A2
*1766 ANTENNA__0933__B1
*1767 ANTENNA__0933__C1
*1768 ANTENNA__0934__A1_N
*1769 ANTENNA__0934__A2_N
*1770 ANTENNA__0935__A
*1771 ANTENNA__0936__A
*1772 ANTENNA__0937__A
*1773 ANTENNA__0938__A
*1774 ANTENNA__0941__B
*1775 ANTENNA__0942__A2
*1776 ANTENNA__0942__C1
*1777 ANTENNA__0943__A1
*1778 ANTENNA__0945__A
*1779 ANTENNA__0945__B
*1780 ANTENNA__0947__A
*1781 ANTENNA__0948__B
*1782 ANTENNA__0948__D
*1783 ANTENNA__0949__A
*1784 ANTENNA__0950__A
*1785 ANTENNA__0951__A
*1786 ANTENNA__0953__C
*1787 ANTENNA__0954__A1
*1788 ANTENNA__0954__B1
*1789 ANTENNA__0956__A1_N
*1790 ANTENNA__0958__B
*1791 ANTENNA__0959__A2
*1792 ANTENNA__0959__A4
*1793 ANTENNA__0959__B1
*1794 ANTENNA__0961__A
*1795 ANTENNA__0962__A
*1796 ANTENNA__0964__B1
*1797 ANTENNA__0965__A1_N
*1798 ANTENNA__0967__A
*1799 ANTENNA__0968__A
*1800 ANTENNA__0968__B
*1801 ANTENNA__0969__A
*1802 ANTENNA__0971__A
*1803 ANTENNA__0973__B
*1804 ANTENNA__0974__A2
*1805 ANTENNA__0974__B1
*1806 ANTENNA__0976__A
*1807 ANTENNA__0977__A1_N
*1808 ANTENNA__0978__A
*1809 ANTENNA__0978__B
*1810 ANTENNA__0979__A
*1811 ANTENNA__0980__A
*1812 ANTENNA__0982__A
*1813 ANTENNA__0982__B
*1814 ANTENNA__0983__A2
*1815 ANTENNA__0983__B1
*1816 ANTENNA__0986__A
*1817 ANTENNA__0986__B
*1818 ANTENNA__0986__C
*1819 ANTENNA__0988__A1_N
*1820 ANTENNA__0990__B
*1821 ANTENNA__0991__A
*1822 ANTENNA__0993__A
*1823 ANTENNA__0993__D
*1824 ANTENNA__0994__A1
*1825 ANTENNA__0996__A1_N
*1826 ANTENNA__0997__A
*1827 ANTENNA__0998__A
*1828 ANTENNA__0999__A
*1829 ANTENNA__1000__A